#TargetFrameworkVersion=v4.0:PlatformToolSet=v140:EnableManagedIncrementalBuild=false:VCToolArchitecture=Native32Bit:WindowsTargetPlatformVersion=8.1
Release|x64|C:\Users\mgkang.DI-SOLUTION\Desktop\KANG\PYcharm_project\git\FreeCad\DualSPHysics\DualSPHysics_v5.0\src_extra\ToVTK_v5\VS\|
